data/ENWL/enwl_4wire/network_12/Feeder_3/Loads.txt
! Imported from Loads.txt, with modified neutral terminal
! ---------------------------------------------------------------------------------
New Load.LOAD1 Phases=1 Bus1=78.1.4 kV=0.23 kW=1.968  PF=0.95
New Load.LOAD2 Phases=1 Bus1=177.1.4 kV=0.23 kW=0.306  PF=0.95
New Load.LOAD3 Phases=1 Bus1=220.2.4 kV=0.23 kW=2.94  PF=0.95
New Load.LOAD4 Phases=1 Bus1=290.1.4 kV=0.23 kW=0.324  PF=0.95
New Load.LOAD5 Phases=1 Bus1=370.2.4 kV=0.23 kW=1.332  PF=0.95
New Load.LOAD6 Phases=1 Bus1=371.3.4 kV=0.23 kW=3.0540000000000003  PF=0.95
New Load.LOAD7 Phases=1 Bus1=389.3.4 kV=0.23 kW=2.0580000000000003  PF=0.95
New Load.LOAD8 Phases=1 Bus1=405.1.4 kV=0.23 kW=0.29400000000000004  PF=0.95
New Load.LOAD9 Phases=1 Bus1=421.2.4 kV=0.23 kW=0.312  PF=0.95
New Load.LOAD10 Phases=1 Bus1=436.1.4 kV=0.23 kW=0.27  PF=0.95
New Load.LOAD11 Phases=1 Bus1=437.1.4 kV=0.23 kW=0.33  PF=0.95
New Load.LOAD12 Phases=1 Bus1=473.2.4 kV=0.23 kW=0.33  PF=0.95
New Load.LOAD13 Phases=1 Bus1=495.3.4 kV=0.23 kW=0.246  PF=0.95
New Load.LOAD14 Phases=1 Bus1=521.2.4 kV=0.23 kW=2.04  PF=0.95
New Load.LOAD15 Phases=1 Bus1=544.3.4 kV=0.23 kW=0.8280000000000001  PF=0.95
New Load.LOAD16 Phases=1 Bus1=552.3.4 kV=0.23 kW=0.11399999999999999  PF=0.95
New Load.LOAD17 Phases=1 Bus1=556.2.4 kV=0.23 kW=0.28800000000000003  PF=0.95
New Load.LOAD18 Phases=1 Bus1=562.3.4 kV=0.23 kW=0.324  PF=0.95
New Load.LOAD19 Phases=1 Bus1=590.3.4 kV=0.23 kW=1.944  PF=0.95
New Load.LOAD20 Phases=1 Bus1=646.3.4 kV=0.23 kW=0.264  PF=0.95
New Load.LOAD21 Phases=1 Bus1=668.1.4 kV=0.23 kW=0.336  PF=0.95
New Load.LOAD22 Phases=1 Bus1=700.1.4 kV=0.23 kW=0.966  PF=0.95
New Load.LOAD23 Phases=1 Bus1=734.2.4 kV=0.23 kW=0.246  PF=0.95
New Load.LOAD24 Phases=1 Bus1=752.2.4 kV=0.23 kW=1.956  PF=0.95
New Load.LOAD25 Phases=1 Bus1=785.3.4 kV=0.23 kW=0.29400000000000004  PF=0.95
New Load.LOAD26 Phases=1 Bus1=798.1.4 kV=0.23 kW=0.336  PF=0.95
New Load.LOAD27 Phases=1 Bus1=799.2.4 kV=0.23 kW=0.27  PF=0.95
New Load.LOAD28 Phases=1 Bus1=800.3.4 kV=0.23 kW=0.276  PF=0.95
New Load.LOAD29 Phases=1 Bus1=826.1.4 kV=0.23 kW=0.34800000000000003  PF=0.95
New Load.LOAD30 Phases=1 Bus1=856.1.4 kV=0.23 kW=0.264  PF=0.95
New Load.LOAD31 Phases=1 Bus1=857.2.4 kV=0.23 kW=0.28200000000000003  PF=0.95
New Load.LOAD32 Phases=1 Bus1=861.1.4 kV=0.23 kW=0.342  PF=0.95
New Load.LOAD33 Phases=1 Bus1=871.1.4 kV=0.23 kW=0.28800000000000003  PF=0.95
New Load.LOAD34 Phases=1 Bus1=872.1.4 kV=0.23 kW=2.748  PF=0.95
New Load.LOAD35 Phases=1 Bus1=881.2.4 kV=0.23 kW=0.9612  PF=0.95
New Load.LOAD36 Phases=1 Bus1=882.3.4 kV=0.23 kW=0.318  PF=0.95
New Load.LOAD37 Phases=1 Bus1=903.1.4 kV=0.23 kW=0.28200000000000003  PF=0.95
New Load.LOAD38 Phases=1 Bus1=917.3.4 kV=0.23 kW=0.276  PF=0.95
New Load.LOAD39 Phases=1 Bus1=928.2.4 kV=0.23 kW=9.738  PF=0.95
New Load.LOAD40 Phases=1 Bus1=973.1.4 kV=0.23 kW=0.28800000000000003  PF=0.95
New Load.LOAD41 Phases=1 Bus1=976.1.4 kV=0.23 kW=0.28800000000000003  PF=0.95
New Load.LOAD42 Phases=1 Bus1=998.2.4 kV=0.23 kW=0.15000000000000002  PF=0.95
New Load.LOAD43 Phases=1 Bus1=1010.3.4 kV=0.23 kW=0.318  PF=0.95
New Load.LOAD44 Phases=1 Bus1=1087.1.4 kV=0.23 kW=1.8719999999999999  PF=0.95
New Load.LOAD45 Phases=1 Bus1=1089.2.4 kV=0.23 kW=5.586  PF=0.95
New Load.LOAD46 Phases=1 Bus1=1090.3.4 kV=0.23 kW=0.336  PF=0.95
New Load.LOAD47 Phases=1 Bus1=1091.1.4 kV=0.23 kW=0.354  PF=0.95
New Load.LOAD48 Phases=1 Bus1=1092.2.4 kV=0.23 kW=0.21599999999999997  PF=0.95
New Load.LOAD49 Phases=1 Bus1=1113.3.4 kV=0.23 kW=0.324  PF=0.95
New Load.LOAD50 Phases=1 Bus1=1116.3.4 kV=0.23 kW=0.318  PF=0.95
New Load.LOAD51 Phases=1 Bus1=1117.3.4 kV=0.23 kW=0.33  PF=0.95
New Load.LOAD52 Phases=1 Bus1=1132.3.4 kV=0.23 kW=0.22799999999999998  PF=0.95
New Load.LOAD53 Phases=1 Bus1=1169.1.4 kV=0.23 kW=0.9179999999999999  PF=0.95
New Load.LOAD54 Phases=1 Bus1=1170.2.4 kV=0.23 kW=0.28800000000000003  PF=0.95
New Load.LOAD55 Phases=1 Bus1=1171.3.4 kV=0.23 kW=0.4356  PF=0.95
New Load.LOAD56 Phases=1 Bus1=1172.1.4 kV=0.23 kW=0.402  PF=0.95
New Load.LOAD57 Phases=1 Bus1=1173.2.4 kV=0.23 kW=0.30000000000000004  PF=0.95
New Load.LOAD58 Phases=1 Bus1=1174.3.4 kV=0.23 kW=0.354  PF=0.95
New Load.LOAD59 Phases=1 Bus1=1203.1.4 kV=0.23 kW=0.264  PF=0.95
New Load.LOAD60 Phases=1 Bus1=1204.2.4 kV=0.23 kW=0.30000000000000004  PF=0.95
New Load.LOAD61 Phases=1 Bus1=1205.3.4 kV=0.23 kW=0.28800000000000003  PF=0.95
New Load.LOAD62 Phases=1 Bus1=1206.1.4 kV=0.23 kW=1.476  PF=0.95
New Load.LOAD63 Phases=1 Bus1=1207.2.4 kV=0.23 kW=1.242  PF=0.95
New Load.LOAD64 Phases=1 Bus1=1208.3.4 kV=0.23 kW=1.536  PF=0.95
New Load.LOAD65 Phases=1 Bus1=1209.1.4 kV=0.23 kW=0.30000000000000004  PF=0.95
New Load.LOAD66 Phases=1 Bus1=1210.2.4 kV=0.23 kW=0.306  PF=0.95
New Load.LOAD67 Phases=1 Bus1=1225.2.4 kV=0.23 kW=0.318  PF=0.95
New Load.LOAD68 Phases=1 Bus1=1235.1.4 kV=0.23 kW=0.33  PF=0.95
New Load.LOAD69 Phases=1 Bus1=1241.3.4 kV=0.23 kW=0.276  PF=0.95
New Load.LOAD70 Phases=1 Bus1=1248.1.4 kV=0.23 kW=0.246  PF=0.95
New Load.LOAD71 Phases=1 Bus1=1249.2.4 kV=0.23 kW=0.30000000000000004  PF=0.95
New Load.LOAD72 Phases=1 Bus1=1250.3.4 kV=0.23 kW=0.264  PF=0.95
New Load.LOAD73 Phases=1 Bus1=1251.1.4 kV=0.23 kW=1.9056  PF=0.95
New Load.LOAD74 Phases=1 Bus1=1252.2.4 kV=0.23 kW=0.306  PF=0.95
New Load.LOAD75 Phases=1 Bus1=1253.3.4 kV=0.23 kW=6.7476  PF=0.95
New Load.LOAD76 Phases=1 Bus1=1254.1.4 kV=0.23 kW=0.21599999999999997  PF=0.95
New Load.LOAD77 Phases=1 Bus1=1255.2.4 kV=0.23 kW=0.34800000000000003  PF=0.95
New Load.LOAD78 Phases=1 Bus1=1265.1.4 kV=0.23 kW=2.9939999999999998  PF=0.95
New Load.LOAD79 Phases=1 Bus1=1289.3.4 kV=0.23 kW=0.336  PF=0.95
New Load.LOAD80 Phases=1 Bus1=1301.3.4 kV=0.23 kW=0.28800000000000003  PF=0.95
New Load.LOAD81 Phases=1 Bus1=1350.3.4 kV=0.23 kW=0.7452000000000001  PF=0.95
New Load.LOAD82 Phases=1 Bus1=1351.3.4 kV=0.23 kW=1.158  PF=0.95
New Load.LOAD83 Phases=1 Bus1=1352.3.4 kV=0.23 kW=1.0379999999999998  PF=0.95
New Load.LOAD84 Phases=3 Bus1=1371.1.2.3.4 kV=0.412 kW=0.29400000000000004  PF=0.95
New Load.LOAD85 Phases=3 Bus1=1372.1.2.3.4 kV=0.412 kW=0.318  PF=0.95
New Load.LOAD86 Phases=3 Bus1=1373.1.2.3.4 kV=0.412 kW=0.28200000000000003  PF=0.95
New Load.LOAD87 Phases=3 Bus1=1374.1.2.3.4 kV=0.412 kW=0.318  PF=0.95
New Load.LOAD88 Phases=3 Bus1=1375.1.2.3.4 kV=0.412 kW=0.4644  PF=0.95
New Load.LOAD89 Phases=3 Bus1=1376.1.2.3.4 kV=0.412 kW=0.29400000000000004  PF=0.95
New Load.LOAD90 Phases=3 Bus1=1377.1.2.3.4 kV=0.412 kW=1.416  PF=0.95
! ---------------------------------------------------------------------------------